.model BAT46 D (
+ Is=2.2e-8
+ Rs=0.4
+ N=1.002
+ Cjo=1.1e-11
+ M=0.33
+ Vj=0.5
+ Bv=100
+ Ibv=1e-5
+ Tt=5e-9
+ )
