* PJ398SM jack model
* PLUGGED=0 → no cable (normalled, SW shorted to T)
* PLUGGED=1 → cable inserted (SW disconnected from T)

.subckt PJ398SM S SW T PARAMS: PLUGGED=0

R_norm  T SW  {1m + PLUGGED * 1G}

.ends PJ398SM
